Version 4
SHEET 1 880 680
WIRE 160 32 128 32
WIRE 272 32 224 32
WIRE 304 32 272 32
WIRE 416 32 368 32
WIRE 0 128 -16 128
WIRE 16 128 0 128
WIRE 128 128 128 32
WIRE 128 128 96 128
WIRE 160 128 128 128
WIRE 272 128 272 32
WIRE 272 128 240 128
WIRE 304 128 272 128
WIRE 416 128 416 32
WIRE 416 128 384 128
WIRE 464 128 416 128
WIRE 512 128 464 128
WIRE 544 128 512 128
WIRE -16 160 -16 128
WIRE 272 160 272 128
WIRE 416 160 416 128
WIRE 464 160 464 128
WIRE 544 160 544 128
WIRE -16 272 -16 240
WIRE 272 272 272 224
WIRE 272 272 -16 272
WIRE 416 272 416 224
WIRE 416 272 272 272
WIRE 464 272 464 240
WIRE 464 272 416 272
WIRE 544 272 544 240
WIRE 544 272 464 272
WIRE 272 304 272 272
FLAG 272 304 0
FLAG 512 128 OUT
FLAG 0 128 IN
SYMBOL res 112 144 M270
WINDOW 0 32 56 VTop 2
WINDOW 3 0 56 VBottom 2
SYMATTR InstName R1
SYMATTR Value 60
SYMBOL ind 144 144 R270
WINDOW 0 32 56 VTop 2
WINDOW 3 5 56 VBottom 2
SYMATTR InstName L1
SYMATTR Value 0µ68
SYMBOL ind 288 144 R270
WINDOW 0 32 56 VTop 2
WINDOW 3 5 56 VBottom 2
SYMATTR InstName L2
SYMATTR Value 1µ2
SYMBOL cap 160 48 R270
WINDOW 0 32 32 VTop 2
WINDOW 3 0 32 VBottom 2
SYMATTR InstName C1
SYMATTR Value 47p
SYMBOL cap 304 48 R270
WINDOW 0 32 32 VTop 2
WINDOW 3 0 32 VBottom 2
SYMATTR InstName C2
SYMATTR Value 100p
SYMBOL cap 288 224 R180
WINDOW 0 24 56 Left 2
WINDOW 3 24 8 Left 2
SYMATTR InstName C3
SYMATTR Value 150p
SYMBOL cap 432 224 R180
WINDOW 0 24 56 Left 2
WINDOW 3 24 8 Left 2
SYMATTR InstName C4
SYMATTR Value 82p
SYMBOL res 448 144 R0
SYMATTR InstName R2
SYMATTR Value 100
SYMBOL voltage -16 144 M0
WINDOW 123 24 124 Left 2
WINDOW 39 24 152 Left 2
SYMATTR InstName V1
SYMATTR Value ""
SYMATTR Value2 AC 1
SYMATTR SpiceLine Rser=40
SYMBOL res 528 144 R0
SYMATTR InstName R3
SYMATTR Value 50k
TEXT -146 328 Left 2 !.ac oct 100 1Meg 100Meg
